Circuit: * C:\Users\Vicky\Documents\ee017\laborotorios\01\simulacion_oscilador_res_neg.asc

Per .tran options, skipping operating point for transient analysis.

Date: Sat Sep 07 12:42:18 2019
Total elapsed time: 0.198 seconds.

tnom = 27
temp = 27
method = modified trap
totiter = 2227
traniter = 2227
tranpoints = 1089
accept = 1081
rejected = 8
matrix size = 11
fillins = 0
solver = Normal
Matrix Compiler1: 656 bytes object code size  0.3/0.2/[0.2]
Matrix Compiler2: 985 bytes object code size  0.2/0.3/[0.2]

